CM 
CE
SY freq=7.05
SY L=20.67776
SY H=20
SY wrad=1e-3
GW	1	19	0	0	-L/2	0	0	L/2	wrad
GM	0	0	0	0	0	0	0	H	1
GE	1
LD	5	0	0	0	58000000
GN	2	0	0	0	13	0.005
EK
EX	0	1	10	0	1	0	0
FR	0	0	0	0	freq	0
EN
