CM Cardioid, converted with 4nec2 on 31-Mar-24 22:47
CE
SY freq=21.05
SY rad=0.8e-3
SY bh=5.5
SY ZTL=450	'416 or 450
SY TL1=1.85-1.24
SY TL2=1.24-0.85
GW	1	1	1.24	0	-0.025	1.24	0	0.025	rad
GW	2	20	-1.85	0	0	-0.20502	0	-4.89077	rad
GW	3	20	-1.85	0	0	-0.20502	0	4.89077	rad
GW	4	20	1.85	0	0.025	0.34865	0	4.4682	rad
GW	5	20	1.85	0	-0.025	0.34865	0	-4.4682	rad
GW	6	15	-1.24	0	0	-0.46284	0	-3.3716	rad
GW	7	15	-1.24	0	0	-0.46284	0	3.3716	rad
GW	8	15	1.24	0	0.025	0.50009	0	3.29226	rad
GW	9	15	1.24	0	-0.025	0.50009	0	-3.29226	rad
GW	10	1	1.85	0	-0.025	1.85	0	0.025	rad
GW	11	1	0.85	0	-0.025	0.85	0	0.025	rad
GW	12	10	0.85	0	-0.025	0.48277	0	-2.39168	rad
GW	13	10	0.85	0	0.025	0.48277	0	2.39168	rad
GW	16	10	2.15	0	0	1.25804	0	-2.28187	rad
GW	17	10	2.15	0	0	1.25804	0	2.28187	rad
GW	18	10	-0.85	0	0	-0.45269	0	2.56946	rad
GW	19	10	-0.85	0	0	-0.45269	0	-2.56946	rad
GM	0	0	0	0	0	0	0	bh	1
GE	-1
LD	5	0	0	0	58000000
GN	2	0	0	0	81	5.0
EK
EX	6	1	1	0	1	0	0
TL	1	1	10	1	ZTL	TL1	0	0	0	0
TL	1	1	11	1	ZTL	TL2	0	0	0	0
FR	0	0	0	0	freq	0
EN
