CM Cardioid, converted with 4nec2 on 31-Mar-24 22:47
CM forw: 82, 0 ; back: 82, 180
CE
SY freq=14.05
SY rad=0.8e-3
SY bh=5.5
SY sf20=0.96
SY sf15=0.958601
SY sf=0.961807
SY ZTL=450	'416 or 450
SY TL1=1.85*sf20-1.24*sf15
SY TL2=1.24*sf15-0.85*sf
GW	1	1	1.24*sf15	0	-0.025*sf15	1.24*sf15	0	0.025*sf15	rad
GW	2	20	-1.85*sf20	0	0	-0.20502*sf20	0	-4.89077*sf20	rad
GW	3	20	-1.85*sf20	0	0	-0.20502*sf20	0	4.89077*sf20	rad
GW	4	20	1.85*sf20	0	0.025*sf20	0.34865*sf20	0	4.4682*sf20	rad
GW	5	20	1.85*sf20	0	-0.025*sf20	0.34865*sf20	0	-4.4682*sf20	rad
GW	6	15	-1.24*sf15	0	0	-0.46284*sf15	0	-3.3716*sf15	rad
GW	7	15	-1.24*sf15	0	0	-0.46284*sf15	0	3.3716*sf15	rad
GW	8	15	1.24*sf15	0	0.025*sf15	0.50009*sf15	0	3.29226*sf15	rad
GW	9	15	1.24*sf15	0	-0.025*sf15	0.50009*sf15	0	-3.29226*sf	rad
GW	10	1	1.85*sf20	0	-0.025*sf20	1.85*sf20	0	0.025*sf20	rad
GW	11	1	0.85*sf	0	-0.025*sf	0.85*sf	0	0.025*sf	rad
GW	12	10	0.85*sf	0	-0.025*sf	0.48277*sf	0	-2.39168*sf	rad
GW	13	10	0.85*sf	0	0.025*sf	0.48277*sf	0	2.39168*sf	rad
GW	16	10	2.15*sf	0	0	1.25804*sf	0	-2.28187*sf	rad
GW	17	10	2.15*sf	0	0	1.25804*sf	0	2.28187*sf	rad
GW	18	10	-0.85*sf	0	0	-0.45269*sf	0	2.56946*sf	rad
GW	19	10	-0.85*sf	0	0	-0.45269*sf	0	-2.56946*sf	rad
GM	0	0	0	0	0	0	0	bh	1
GE	-1
LD	5	0	0	0	58000000
LD	7	0	0	0	4.5	2*rad
GN	2	0	0	0	81	5.0
EK
EX	6	1	1	0	1	0	0
TL	1	1	10	1	ZTL	TL1	0	0	0	0
TL	1	1	11	1	ZTL	TL2	0	0	0	0
FR,0,1,0,0,14.05
PQ -1
PT -1
